Test_Network/condensed/network_10/Loads.txt
New Load.LOAD11 Phases=1 Bus1=1119.1 kV=0.23 kW=1 PF=0.95
New Load.LOAD12 Phases=1 Bus1=1120.2 kV=0.23 kW=1 PF=0.95
New Load.LOAD13 Phases=1 Bus1=1121.3 kV=0.23 kW=1 PF=0.95
New Load.LOAD14 Phases=1 Bus1=1122.1 kV=0.23 kW=1 PF=0.95
New Load.LOAD15 Phases=1 Bus1=1123.2 kV=0.23 kW=1 PF=0.95
New Load.LOAD16 Phases=1 Bus1=1124.3 kV=0.23 kW=1 PF=0.95
New Load.LOAD17 Phases=1 Bus1=1125.1 kV=0.23 kW=1 PF=0.95
New Load.LOAD18 Phases=1 Bus1=1126.2 kV=0.23 kW=1 PF=0.95
New Load.LOAD19 Phases=1 Bus1=1127.3 kV=0.23 kW=1 PF=0.95
New Load.LOAD110 Phases=1 Bus1=1128.1 kV=0.23 kW=1 PF=0.95
New Load.LOAD111 Phases=1 Bus1=1129.2 kV=0.23 kW=1 PF=0.95
New Load.LOAD112 Phases=1 Bus1=1130.3 kV=0.23 kW=1 PF=0.95
New Load.LOAD113 Phases=1 Bus1=1132.2 kV=0.23 kW=1 PF=0.95
New Load.LOAD114 Phases=1 Bus1=1241.1 kV=0.23 kW=1 PF=0.95
New Load.LOAD115 Phases=1 Bus1=1242.2 kV=0.23 kW=1 PF=0.95
New Load.LOAD116 Phases=1 Bus1=1243.3 kV=0.23 kW=1 PF=0.95
New Load.LOAD117 Phases=1 Bus1=1244.1 kV=0.23 kW=1 PF=0.95
New Load.LOAD118 Phases=1 Bus1=1245.2 kV=0.23 kW=1 PF=0.95
New Load.LOAD119 Phases=1 Bus1=1246.3 kV=0.23 kW=1 PF=0.95
New Load.LOAD120 Phases=1 Bus1=1247.1 kV=0.23 kW=1 PF=0.95
New Load.LOAD121 Phases=1 Bus1=1248.2 kV=0.23 kW=1 PF=0.95
New Load.LOAD21 Phases=1 Bus1=23.1 kV=0.23 kW=1 PF=0.95
New Load.LOAD22 Phases=1 Bus1=2143.2 kV=0.23 kW=1 PF=0.95
New Load.LOAD23 Phases=1 Bus1=2416.3 kV=0.23 kW=1 PF=0.95
New Load.LOAD24 Phases=1 Bus1=2419.3 kV=0.23 kW=1 PF=0.95
New Load.LOAD25 Phases=1 Bus1=2444.1 kV=0.23 kW=1 PF=0.95
New Load.LOAD31 Phases=1 Bus1=3335.1 kV=0.23 kW=1 PF=0.95
New Load.LOAD32 Phases=1 Bus1=3337.2 kV=0.23 kW=1 PF=0.95
New Load.LOAD33 Phases=1 Bus1=3343.3 kV=0.23 kW=1 PF=0.95
New Load.LOAD34 Phases=1 Bus1=3346.1 kV=0.23 kW=1 PF=0.95
New Load.LOAD35 Phases=1 Bus1=3348.2 kV=0.23 kW=1 PF=0.95
New Load.LOAD36 Phases=1 Bus1=3349.3 kV=0.23 kW=1 PF=0.95
New Load.LOAD37 Phases=1 Bus1=3357.1 kV=0.23 kW=1 PF=0.95
New Load.LOAD38 Phases=1 Bus1=3359.2 kV=0.23 kW=1 PF=0.95
New Load.LOAD39 Phases=1 Bus1=3363.3 kV=0.23 kW=1 PF=0.95
New Load.LOAD310 Phases=1 Bus1=3365.1 kV=0.23 kW=1 PF=0.95
New Load.LOAD311 Phases=1 Bus1=3368.2 kV=0.23 kW=1 PF=0.95
New Load.LOAD312 Phases=1 Bus1=3391.3 kV=0.23 kW=1 PF=0.95
New Load.LOAD313 Phases=1 Bus1=3393.1 kV=0.23 kW=1 PF=0.95
New Load.LOAD314 Phases=1 Bus1=3397.2 kV=0.23 kW=1 PF=0.95
New Load.LOAD315 Phases=1 Bus1=3401.3 kV=0.23 kW=1 PF=0.95
New Load.LOAD41 Phases=1 Bus1=4169.1 kV=0.23 kW=1 PF=0.95
New Load.LOAD42 Phases=1 Bus1=4185.2 kV=0.23 kW=1 PF=0.95
New Load.LOAD43 Phases=1 Bus1=4273.3 kV=0.23 kW=1 PF=0.95
New Load.LOAD44 Phases=1 Bus1=4289.1 kV=0.23 kW=1 PF=0.95
New Load.LOAD45 Phases=1 Bus1=4495.2 kV=0.23 kW=1 PF=0.95
New Load.LOAD46 Phases=1 Bus1=4496.3 kV=0.23 kW=1 PF=0.95
New Load.LOAD47 Phases=1 Bus1=4497.1 kV=0.23 kW=1 PF=0.95
New Load.LOAD51 Phases=1 Bus1=5271.1 kV=0.23 kW=1 PF=0.95
New Load.LOAD52 Phases=1 Bus1=5272.2 kV=0.23 kW=1 PF=0.95
New Load.LOAD53 Phases=1 Bus1=5273.3 kV=0.23 kW=1 PF=0.95
New Load.LOAD54 Phases=1 Bus1=5274.1 kV=0.23 kW=1 PF=0.95
New Load.LOAD55 Phases=1 Bus1=5275.2 kV=0.23 kW=1 PF=0.95
New Load.LOAD56 Phases=1 Bus1=5276.3 kV=0.23 kW=1 PF=0.95
New Load.LOAD57 Phases=1 Bus1=5298.1 kV=0.23 kW=1 PF=0.95
New Load.LOAD58 Phases=1 Bus1=5299.2 kV=0.23 kW=1 PF=0.95
New Load.LOAD59 Phases=1 Bus1=5300.3 kV=0.23 kW=1 PF=0.95
New Load.LOAD510 Phases=1 Bus1=5301.1 kV=0.23 kW=1 PF=0.95
New Load.LOAD511 Phases=1 Bus1=5312.2 kV=0.23 kW=1 PF=0.95
New Load.LOAD61 Phases=1 Bus1=664.1 kV=0.23 kW=1 PF=0.95
New Load.LOAD62 Phases=1 Bus1=6286.2 kV=0.23 kW=1 PF=0.95
New Load.LOAD63 Phases=1 Bus1=6367.3 kV=0.23 kW=1 PF=0.95
New Load.LOAD64 Phases=1 Bus1=6442.1 kV=0.23 kW=1 PF=0.95
New Load.LOAD65 Phases=1 Bus1=6459.2 kV=0.23 kW=1 PF=0.95
